pcf
* control data
restart regularisation
      19       6       1      19       2
         1         1              single               point
   2.000000E+01  -3.000000E+00   3.000000E-01   1.000000E-02        -7
   1.000000E+01   1.000000E+01   1.000000E-03
   1.000000E-01
       100   1.000000E-02         3         3   1.000000E-04         3
         0         0         0
* singular value decomposition
         1
  10000000    1.000000E-06
1
* parameter groups
pargp                  relative              1.0000000000E-02      0.0 always_3              2.0000000000E+00      parabolic             1.0000000000E-05      5.0000000000E-01      smaller
* parameter data
24                    none                  relative              6.0000000000E+01      5.0000000000E+01      2.0000000000E+03      pargp                 1.0000000000E+00      0.0000000000E+00      1
27                    none                  relative              6.0000000000E+01      5.0000000000E+01      2.0000000000E+03      pargp                 1.0000000000E+00      0.0000000000E+00      1
28                    none                  relative              1.6000000000E+02      5.0000000000E+01      2.0000000000E+03      pargp                 1.0000000000E+00      0.0000000000E+00      1
29                    none                  relative              1.0000000000E+03      5.0000000000E+01      2.0000000000E+03      pargp                 1.0000000000E+00      0.0000000000E+00      1
30                    none                  relative              1.0000000000E+03      5.0000000000E+01      2.0000000000E+03      pargp                 1.0000000000E+00      0.0000000000E+00      1
31                    none                  relative              6.0000000000E+01      5.0000000000E+01      2.0000000000E+03      pargp                 1.0000000000E+00      0.0000000000E+00      1
32                    none                  relative              6.0000000000E+01      5.0000000000E+01      2.0000000000E+03      pargp                 1.0000000000E+00      0.0000000000E+00      1
33                    none                  relative              6.0000000000E+01      5.0000000000E+01      2.0000000000E+03      pargp                 1.0000000000E+00      0.0000000000E+00      1
34                    none                  relative              1.6000000000E+02      5.0000000000E+01      2.0000000000E+03      pargp                 1.0000000000E+00      0.0000000000E+00      1
35                    none                  relative              1.0000000000E+03      5.0000000000E+01      2.0000000000E+03      pargp                 1.0000000000E+00      0.0000000000E+00      1
36                    none                  relative              6.0000000000E+01      5.0000000000E+01      2.0000000000E+03      pargp                 1.0000000000E+00      0.0000000000E+00      1
37                    none                  relative              6.0000000000E+01      5.0000000000E+01      2.0000000000E+03      pargp                 1.0000000000E+00      0.0000000000E+00      1
38                    none                  relative              1.6000000000E+02      5.0000000000E+01      2.0000000000E+03      pargp                 1.0000000000E+00      0.0000000000E+00      1
39                    none                  relative              9.0000000000E+02      5.0000000000E+01      2.0000000000E+03      pargp                 1.0000000000E+00      0.0000000000E+00      1
48                    none                  relative              7.2000000000E+02      5.0000000000E+01      2.0000000000E+03      pargp                 1.0000000000E+00      0.0000000000E+00      1
65                    none                  relative              2.4000000000E+02      5.0000000000E+01      2.0000000000E+03      pargp                 1.0000000000E+00      0.0000000000E+00      1
7                     none                  relative              3.9000000000E+02      5.0000000000E+01      2.0000000000E+03      pargp                 1.0000000000E+00      0.0000000000E+00      1
8                     none                  relative              4.0000000000E+02      5.0000000000E+01      2.0000000000E+03      pargp                 1.0000000000E+00      0.0000000000E+00      1
9                     none                  relative              6.7000000000E+02      5.0000000000E+01      2.0000000000E+03      pargp                 1.0000000000E+00      0.0000000000E+00      1
* observation groups
ecobsgrp
regul_pargp
* observation data
anc-nrmse-ec          0.0000000000E+00      1.0000000000E+00      ecobsgrp
cll-nrmse-ec          0.0000000000E+00      1.0000000000E+00      ecobsgrp
dsj-nrmse-ec          0.0000000000E+00      1.0000000000E+00      ecobsgrp
emm-nrmse-ec          0.0000000000E+00      1.0000000000E+00      ecobsgrp
jer-nrmse-ec          0.0000000000E+00      1.0000000000E+00      ecobsgrp
tsl-nrmse-ec          0.0000000000E+00      1.0000000000E+00      ecobsgrp
* model command line
runDSM2.bat
* model input/output
mainconfig.tpl mainconfig.txt
metrics.ins metrics.dat
* prior information
24            1.0 * 24 =   60.00000      1.0 regul_pargp
27            1.0 * 27 =   60.00000      1.0 regul_pargp
28            1.0 * 28 =   160.0000      1.0 regul_pargp
29            1.0 * 29 =   1000.000      1.0 regul_pargp
30            1.0 * 30 =   1000.000      1.0 regul_pargp
31            1.0 * 31 =   60.00000      1.0 regul_pargp
32            1.0 * 32 =   60.00000      1.0 regul_pargp
33            1.0 * 33 =   60.00000      1.0 regul_pargp
34            1.0 * 34 =   160.0000      1.0 regul_pargp
35            1.0 * 35 =   1000.000      1.0 regul_pargp
36            1.0 * 36 =   60.00000      1.0 regul_pargp
37            1.0 * 37 =   60.00000      1.0 regul_pargp
38            1.0 * 38 =   160.0000      1.0 regul_pargp
39            1.0 * 39 =   900.0000      1.0 regul_pargp
48            1.0 * 48 =   720.0000      1.0 regul_pargp
65            1.0 * 65 =   240.0000      1.0 regul_pargp
7             1.0 * 7 =   390.0000      1.0 regul_pargp
8             1.0 * 8 =   400.0000      1.0 regul_pargp
9             1.0 * 9 =   670.0000      1.0 regul_pargp
* regularisation
  1.0000000E-10  1.0500000E-10  0.1000000    
 1.0   1.0e-10    1.0e10
 1.3   1.0e-2     1
